*SPEF "IEEE 1481-1998"
*DESIGN "usb_phy"
*DATE "Fri Feb 26 11:58:38 2016"
*VENDOR "Silicon Perspective, A Cadence Company"
*PROGRAM "Encounter"
*VERSION "10.13-s089_1"
*DESIGN_FLOW "COUPLING C" "PIN_CAP NONE" "NAME_SCOPE LOCAL"
*DIVIDER /
*DELIMITER :
*BUS_DELIMITER []
*T_UNIT 1 NS
*C_UNIT 1 PF
*R_UNIT 1 OHM
*L_UNIT 1 HENRY

*NAME_MAP

*1 DataIn_o[0]
*2 DataIn_o[1]
*3 DataIn_o[2]
*4 DataIn_o[3]
*5 DataIn_o[4]
*6 DataIn_o[5]
*7 DataIn_o[6]
*8 DataIn_o[7]
*9 DataOut_i[0]
*10 DataOut_i[1]
*11 DataOut_i[2]
*12 DataOut_i[3]
*13 DataOut_i[4]
*14 DataOut_i[5]
*15 DataOut_i[6]
*16 DataOut_i[7]
*17 LineState_o[0]
*18 LineState_o[1]
*19 N23
*20 RxActive_o
*21 RxError_o
*22 RxValid_o
*23 TxReady_o
*24 TxValid_i
*25 clk
*26 clk__L1_N0
*27 clk__L2_N0
*28 clk__L2_N1
*29 clk__L2_N2
*30 clk__L2_N3
*31 fs_ce
*32 i_rx_phy_N127
*33 i_rx_phy_N149
*34 i_rx_phy_N25
*35 i_rx_phy_N29
*36 i_rx_phy_N30
*37 i_rx_phy_N31
*38 i_rx_phy_N32
*39 i_rx_phy_N34
*40 i_rx_phy_bit_cnt_0_
*41 i_rx_phy_bit_cnt_1_
*42 i_rx_phy_bit_cnt_2_
*43 i_rx_phy_dpll_state_0_
*44 i_rx_phy_fs_ce_r1
*45 i_rx_phy_fs_ce_r2
*46 i_rx_phy_fs_state_0_
*47 i_rx_phy_fs_state_1_
*48 i_rx_phy_fs_state_2_
*49 i_rx_phy_one_cnt_0_
*50 i_rx_phy_one_cnt_1_
*51 i_rx_phy_one_cnt_2_
*52 i_rx_phy_rx_en
*53 i_rx_phy_rx_valid1
*54 i_rx_phy_rx_valid_r
*55 i_rx_phy_rxd_r
*56 i_rx_phy_rxd_s
*57 i_rx_phy_rxd_s0
*58 i_rx_phy_rxd_s1
*59 i_rx_phy_rxdn_s
*60 i_rx_phy_rxdn_s0
*61 i_rx_phy_rxdn_s_r
*62 i_rx_phy_rxdp_s
*63 i_rx_phy_rxdp_s0
*64 i_rx_phy_rxdp_s_r
*65 i_rx_phy_sd_nrzi
*66 i_rx_phy_sd_r
*67 i_rx_phy_se0_s
*68 i_rx_phy_shift_en
*69 i_tx_phy_N29
*70 i_tx_phy_append_eop_sync1
*71 i_tx_phy_append_eop_sync2
*72 i_tx_phy_append_eop_sync3
*73 i_tx_phy_append_eop_sync4
*74 i_tx_phy_bit_cnt_0_
*75 i_tx_phy_bit_cnt_1_
*76 i_tx_phy_bit_cnt_2_
*77 i_tx_phy_data_done
*78 i_tx_phy_hold_reg[0]
*79 i_tx_phy_hold_reg[1]
*80 i_tx_phy_hold_reg[2]
*81 i_tx_phy_hold_reg[3]
*82 i_tx_phy_hold_reg[4]
*83 i_tx_phy_hold_reg[5]
*84 i_tx_phy_hold_reg[6]
*85 i_tx_phy_hold_reg[7]
*86 i_tx_phy_hold_reg_d[0]
*87 i_tx_phy_hold_reg_d[4]
*88 i_tx_phy_hold_reg_d[5]
*89 i_tx_phy_ld_data
*90 i_tx_phy_one_cnt_0_
*91 i_tx_phy_one_cnt_1_
*92 i_tx_phy_one_cnt_2_
*93 i_tx_phy_sd_nrzi_o
*94 i_tx_phy_sft_done
*95 i_tx_phy_sft_done_r
*96 i_tx_phy_state_0_
*97 i_tx_phy_state_1_
*98 i_tx_phy_state_2_
*99 i_tx_phy_tx_ip
*100 i_tx_phy_tx_ip_sync
*101 i_tx_phy_txoe_r1
*102 i_tx_phy_txoe_r2
*103 n171
*104 n172
*105 n173
*106 n174
*107 n175
*108 n176
*109 n177
*110 n178
*111 n179
*112 n180
*113 n181
*114 n182
*115 n183
*116 n184
*117 n185
*118 n186
*119 n187
*120 n188
*121 n189
*122 n191
*123 n192
*124 n193
*125 n194
*126 n195
*127 n196
*128 n197
*129 n198
*130 n199
*131 n200
*132 n201
*133 n202
*134 n203
*135 n204
*136 n205
*137 n206
*138 n207
*139 n208
*140 n209
*141 n210
*142 n211
*143 n212
*144 n213
*145 n214
*146 n215
*147 n216
*148 n217
*149 n218
*150 n219
*151 n220
*152 n221
*153 n223
*154 n224
*155 n225
*156 n226
*157 n227
*158 n228
*159 n229
*160 n230
*161 n231
*162 n232
*163 n233
*164 n234
*165 n235
*166 n236
*167 n252
*168 n299
*169 n302
*170 n303
*171 n304
*172 n305
*173 n306
*174 n307
*175 n308
*176 n309
*177 n312
*178 n313
*179 n314
*180 n315
*181 n316
*182 n317
*183 n318
*184 n319
*185 n320
*186 n321
*187 n322
*188 n323
*189 n324
*190 n325
*191 n326
*192 n327
*193 n328
*194 n329
*195 n330
*196 n331
*197 n332
*198 n333
*199 n334
*200 n335
*201 n336
*202 n337
*203 n338
*204 n339
*205 n340
*206 n341
*207 n342
*208 n343
*209 n344
*210 n345
*211 n346
*212 n347
*213 n348
*214 n349
*215 n350
*216 n351
*217 n352
*218 n353
*219 n354
*220 n355
*221 n356
*222 n357
*223 n358
*224 n359
*225 n360
*226 n361
*227 n362
*228 n363
*229 n364
*230 n365
*231 n366
*232 n367
*233 n368
*234 n369
*235 n370
*236 n371
*237 n372
*238 n373
*239 n374
*240 n375
*241 n376
*242 n377
*243 n378
*244 n379
*245 n380
*246 n381
*247 n382
*248 n383
*249 n384
*250 n385
*251 n386
*252 n387
*253 n388
*254 n389
*255 n390
*256 n391
*257 n392
*258 n393
*259 n394
*260 n395
*261 n396
*262 n397
*263 n398
*264 n399
*265 n400
*266 n401
*267 n402
*268 n403
*269 n404
*270 n405
*271 n406
*272 n407
*273 n408
*274 n409
*275 n410
*276 n411
*277 n412
*278 n413
*279 n414
*280 n415
*281 n416
*282 n417
*283 n418
*284 n419
*285 n420
*286 n421
*287 n422
*288 n423
*289 n424
*290 n425
*291 n426
*292 n427
*293 n428
*294 n429
*295 n430
*296 n431
*297 n432
*298 n433
*299 n434
*300 n435
*301 n436
*302 n437
*303 n438
*304 n439
*305 n440
*306 n441
*307 n442
*308 n443
*309 n444
*310 n445
*311 n446
*312 n447
*313 n448
*314 n449
*315 n450
*316 n451
*317 n452
*318 n453
*319 n454
*320 n455
*321 n456
*322 n457
*323 n458
*324 n459
*325 n460
*326 n461
*327 n462
*328 n463
*329 n464
*330 n465
*331 n466
*332 n467
*333 n468
*334 n469
*335 n470
*336 n471
*337 n472
*338 n473
*339 n474
*340 n475
*341 n476
*342 n477
*343 n478
*344 n479
*345 n480
*346 n481
*347 n482
*348 n483
*349 n484
*350 n485
*351 n486
*352 n487
*353 n488
*354 n489
*355 n490
*356 n491
*357 n492
*358 n493
*359 n494
*360 n495
*361 n496
*362 n497
*363 n498
*364 n499
*365 n500
*366 n501
*367 n502
*368 n503
*369 n504
*370 n505
*371 n506
*372 n507
*373 n508
*374 n509
*375 n510
*376 n511
*377 n512
*378 n513
*379 n514
*380 n515
*381 n516
*382 n517
*383 n518
*384 n519
*385 n520
*386 n521
*387 n522
*388 n523
*389 n524
*390 n525
*391 n526
*392 n527
*393 n528
*394 n529
*395 n530
*396 n531
*397 n532
*398 n533
*399 n534
*400 n535
*401 n536
*402 n537
*403 n538
*404 n539
*405 n540
*406 n541
*407 n542
*408 n543
*409 n544
*410 n545
*411 n546
*412 n547
*413 n548
*414 n549
*415 n550
*416 n551
*417 n552
*418 n553
*419 n554
*420 n555
*421 n556
*422 n557
*423 n558
*424 n559
*425 n560
*426 n561
*427 n562
*428 n563
*429 n564
*430 n565
*431 n566
*432 n567
*433 n568
*434 n569
*435 n570
*436 n571
*437 n572
*438 n573
*439 n574
*440 n575
*441 n576
*442 n577
*443 n578
*444 n579
*445 n580
*446 n581
*447 n582
*448 n583
*449 n584
*450 n585
*451 n586
*452 n587
*453 n588
*454 n589
*455 n590
*456 n591
*457 n592
*458 n593
*459 n594
*460 n595
*461 n596
*462 n597
*463 n598
*464 n599
*465 n600
*466 n601
*467 n602
*468 n603
*469 n604
*470 n605
*471 n606
*472 n607
*473 n608
*474 n609
*475 n610
*476 n611
*477 n612
*478 n613
*479 n614
*480 n615
*481 n616
*482 n617
*483 n618
*484 n619
*485 n620
*486 n621
*487 n622
*488 n623
*489 n624
*490 n625
*491 n626
*492 n627
*493 n628
*494 n629
*495 n630
*496 n631
*497 n632
*498 n633
*499 n634
*500 n635
*501 n636
*502 n637
*503 n638
*504 n639
*505 n640
*506 n641
*507 n642
*508 n643
*509 n644
*510 n645
*511 n646
*512 n647
*513 n648
*514 n649
*515 n650
*516 n651
*517 n652
*518 n653
*519 n654
*520 n655
*521 n656
*522 n657
*523 n658
*524 n659
*525 n660
*526 n661
*527 n662
*528 n663
*529 n664
*530 n665
*531 n666
*532 n667
*533 n668
*534 n669
*535 n670
*536 n671
*537 n672
*538 n673
*539 n674
*540 n675
*541 n676
*542 n677
*543 n678
*544 n679
*545 n680
*546 n681
*547 n682
*548 n683
*549 n684
*550 n685
*551 n686
*552 n687
*553 n688
*554 n689
*555 n690
*556 n691
*557 n692
*558 n693
*559 n694
*560 n695
*561 n696
*562 n697
*563 n698
*564 n699
*565 n700
*566 n701
*567 n702
*568 n703
*569 n704
*570 n705
*571 n706
*572 n707
*573 n708
*574 n709
*575 phy_tx_mode
*576 rst
*577 rst_cnt[0]
*578 rst_cnt[1]
*579 rst_cnt[2]
*580 rst_cnt[3]
*581 rst_cnt[4]
*582 rxd
*583 rxdn
*584 rxdp
*585 txdn
*586 txdp
*587 txoe
*588 usb_rst
*589 clk__L2_I3
*590 clk__L2_I2
*591 clk__L2_I1
*592 clk__L2_I0
*593 clk__L1_I0
*594 i_rx_phy_rxdn_s0_reg
*595 i_rx_phy_rxdn_s_r_reg
*596 i_rx_phy_rxdp_s0_reg
*597 i_rx_phy_rxdp_s_r_reg
*598 i_rx_phy_se0_r_reg
*599 i_rx_phy_rxd_s0_reg
*600 i_rx_phy_rxd_s1_reg
*601 i_rx_phy_fs_ce_r1_reg
*602 i_rx_phy_fs_ce_r2_reg
*603 i_tx_phy_hold_reg_d_reg_1_
*604 i_tx_phy_hold_reg_d_reg_3_
*605 i_tx_phy_hold_reg_d_reg_5_
*606 i_tx_phy_hold_reg_d_reg_7_
*607 i_tx_phy_TxReady_o_reg
*608 i_rx_phy_rx_valid_reg
*609 i_rx_phy_bit_stuff_err_reg
*610 i_rx_phy_byte_err_reg
*611 i_rx_phy_sync_err_reg
*612 i_rx_phy_sd_r_reg
*613 i_tx_phy_append_eop_sync1_reg
*614 i_tx_phy_append_eop_sync4_reg
*615 i_tx_phy_tx_ip_reg
*616 i_tx_phy_txoe_r1_reg
*617 i_tx_phy_txoe_r2_reg
*618 i_tx_phy_txoe_reg
*619 i_tx_phy_sd_nrzi_o_reg
*620 i_tx_phy_hold_reg_reg_7_
*621 i_tx_phy_txdp_reg
*622 i_rx_phy_rx_valid_r_reg
*623 i_rx_phy_one_cnt_reg_0_
*624 i_rx_phy_fs_ce_reg
*625 i_tx_phy_hold_reg_d_reg_6_
*626 i_tx_phy_hold_reg_d_reg_4_
*627 i_tx_phy_hold_reg_d_reg_2_
*628 i_tx_phy_one_cnt_reg_2_
*629 i_rx_phy_rx_active_reg
*630 rst_cnt_reg_1_
*631 i_tx_phy_hold_reg_d_reg_0_
*632 usb_rst_reg
*633 i_rx_phy_bit_cnt_reg_0_
*634 i_rx_phy_bit_cnt_reg_1_
*635 i_rx_phy_fs_state_reg_1_
*636 rst_cnt_reg_3_
*637 i_tx_phy_ld_data_reg
*638 i_rx_phy_rx_valid1_reg
*639 i_tx_phy_hold_reg_reg_4_
*640 i_tx_phy_hold_reg_reg_3_
*641 i_tx_phy_hold_reg_reg_2_
*642 i_tx_phy_hold_reg_reg_1_
*643 i_tx_phy_hold_reg_reg_0_
*644 i_tx_phy_hold_reg_reg_6_
*645 i_rx_phy_hold_reg_reg_7_
*646 rst_cnt_reg_2_
*647 i_rx_phy_hold_reg_reg_2_
*648 i_rx_phy_hold_reg_reg_4_
*649 i_rx_phy_hold_reg_reg_5_
*650 i_rx_phy_hold_reg_reg_6_
*651 rst_cnt_reg_4_
*652 i_tx_phy_sft_done_r_reg
*653 i_tx_phy_bit_cnt_reg_2_
*654 i_tx_phy_sd_raw_o_reg
*655 i_rx_phy_dpll_state_reg_1_
*656 i_rx_phy_dpll_state_reg_0_
*657 i_rx_phy_bit_cnt_reg_2_
*658 i_tx_phy_append_eop_reg
*659 i_tx_phy_txdn_reg
*660 i_tx_phy_state_reg_0_
*661 i_rx_phy_fs_state_reg_0_
*662 i_rx_phy_fs_state_reg_2_
*663 i_rx_phy_rxdn_s_reg
*664 i_rx_phy_shift_en_reg
*665 i_rx_phy_rx_en_reg
*666 i_rx_phy_one_cnt_reg_2_
*667 i_tx_phy_data_done_reg
*668 i_rx_phy_rxd_s_reg
*669 i_rx_phy_rxdp_s1_reg
*670 i_tx_phy_one_cnt_reg_1_
*671 i_rx_phy_rxd_r_reg
*672 i_tx_phy_bit_cnt_reg_0_
*673 i_tx_phy_bit_cnt_reg_1_
*674 i_tx_phy_append_eop_sync3_reg
*675 i_rx_phy_rxdp_s_reg
*676 i_tx_phy_state_reg_1_
*677 i_tx_phy_state_reg_2_
*678 i_tx_phy_sft_done_reg
*679 i_rx_phy_sd_nrzi_reg
*680 i_rx_phy_one_cnt_reg_1_
*681 i_rx_phy_hold_reg_reg_3_
*682 i_rx_phy_hold_reg_reg_1_
*683 i_rx_phy_hold_reg_reg_0_
*684 rst_cnt_reg_0_
*685 i_tx_phy_tx_ip_sync_reg
*686 i_tx_phy_append_eop_sync2_reg
*687 i_tx_phy_one_cnt_reg_0_
*688 i_tx_phy_hold_reg_reg_5_
*689 i_rx_phy_se0_s_reg
*690 i_tx_phy_sd_bs_o_reg
*691 i_rx_phy_rxdn_s1_reg
*692 U319
*693 U320
*694 U321
*695 U322
*696 U323
*697 U324
*698 U325
*699 U326
*700 U327
*701 U328
*702 U329
*703 U330
*704 U331
*705 U332
*706 U333
*707 U334
*708 U335
*709 U336
*710 U337
*711 U338
*712 U339
*713 U340
*714 U341
*715 U342
*716 U343
*717 U344
*718 U345
*719 U346
*720 U347
*721 U348
*722 U349
*723 U350
*724 U351
*725 U352
*726 U353
*727 U354
*728 U355
*729 U356
*730 U357
*731 U358
*732 U359
*733 U360
*734 U361
*735 U362
*736 U363
*737 U364
*738 U365
*739 U366
*740 U367
*741 U368
*742 U369
*743 U370
*744 U371
*745 U372
*746 U373
*747 U374
*748 U375
*749 U376
*750 U377
*751 U378
*752 U379
*753 U380
*754 U381
*755 U382
*756 U383
*757 U384
*758 U385
*759 U386
*760 U387
*761 U388
*762 U389
*763 U390
*764 U391
*765 U392
*766 U393
*767 U394
*768 U395
*769 U396
*770 U397
*771 U398
*772 U399
*773 U400
*774 U401
*775 U402
*776 U403
*777 U404
*778 U405
*779 U406
*780 U407
*781 U408
*782 U409
*783 U410
*784 U411
*785 U412
*786 U413
*787 U414
*788 U415
*789 U416
*790 U417
*791 U418
*792 U419
*793 U420
*794 U421
*795 U422
*796 U423
*797 U424
*798 U425
*799 U426
*800 U427
*801 U428
*802 U429
*803 U430
*804 U431
*805 U432
*806 U433
*807 U434
*808 U435
*809 U436
*810 U437
*811 U438
*812 U439
*813 U440
*814 U441
*815 U442
*816 U443
*817 U444
*818 U445
*819 U446
*820 U447
*821 U448
*822 U449
*823 U450
*824 U451
*825 U452
*826 U453
*827 U454
*828 U455
*829 U456
*830 U457
*831 U458
*832 U459
*833 U460
*834 U461
*835 U462
*836 U463
*837 U464
*838 U465
*839 U466
*840 U467
*841 U468
*842 U469
*843 U470
*844 U471
*845 U472
*846 U473
*847 U474
*848 U475
*849 U476
*850 U477
*851 U478
*852 U479
*853 U480
*854 U481
*855 U482
*856 U483
*857 U484
*858 U485
*859 U486
*860 U487
*861 U488
*862 U489
*863 U490
*864 U491
*865 U492
*866 U493
*867 U494
*868 U495
*869 U496
*870 U497
*871 U498
*872 U499
*873 U500
*874 U501
*875 U502
*876 U503
*877 U504
*878 U505
*879 U506
*880 U507
*881 U508
*882 U509
*883 U510
*884 U511
*885 U512
*886 U513
*887 U514
*888 U515
*889 U516
*890 U517
*891 U518
*892 U519
*893 U520
*894 U521
*895 U522
*896 U523
*897 U524
*898 U525
*899 U526
*900 U527
*901 U528
*902 U529
*903 U530
*904 U531
*905 U532
*906 U533
*907 U534
*908 U535
*909 U536
*910 U537
*911 U538
*912 U539
*913 U540
*914 U541
*915 U542
*916 U543
*917 U544
*918 U545
*919 U546
*920 U547
*921 U548
*922 U549
*923 U550
*924 U551
*925 U552
*926 U553
*927 U554
*928 U555
*929 U556
*930 U557
*931 U558
*932 U559
*933 U560
*934 U561
*935 U562
*936 U563
*937 U564
*938 U565
*939 U566
*940 U567
*941 U568
*942 U569
*943 U570
*944 U571
*945 U572
*946 U573
*947 U574
*948 U575
*949 U576
*950 U577
*951 U578
*952 U579
*953 U580
*954 U581
*955 U582
*956 U583
*957 U584
*958 U585
*959 U586
*960 U587
*961 U588
*962 U589
*963 U590
*964 U591
*965 U592
*966 U593
*967 U594
*968 U595
*969 U596
*970 U597
*971 U598
*972 U599
*973 U600
*974 U601
*975 U602
*976 U603
*977 U604
*978 U605
*979 U606
*980 U607
*981 U608
*982 U609
*983 U610
*984 U611
*985 U612
*986 U613
*987 U614
*988 U615
*989 U616
*990 U617
*991 U618
*992 U619
*993 U620
*994 U621
*995 U622
*996 U623
*997 U624
*998 U625
*999 U626
*1000 U627
*1001 U628
*1002 U629
*1003 U630
*1004 U631
*1005 U632
*1006 U633
*1007 U634
*1008 U635
*1009 U636
*1010 U637
*1011 U638
*1012 U639
*1013 U640
*1014 U641
*1015 U642
*1016 U643
*1017 U644
*1018 U645
*1019 U646
*1020 U647
*1021 U648
*1022 U649
*1023 U650
*1024 U651
*1025 U652
*1026 U653
*1027 U654
*1028 U655
*1029 U656
*1030 U657
*1031 U658
*1032 U659
*1033 U660
*1034 U661
*1035 U662
*1036 U663
*1037 U664
*1038 U665
*1039 U666
*1040 U667
*1041 U668
*1042 U669
*1043 U670
*1044 U671
*1045 U672
*1046 U673
*1047 U674
*1048 U675
*1049 U676
*1050 U677
*1051 U678
*1052 U679
*1053 U680
*1054 U681
*1055 U682
*1056 U683
*1057 U684
*1058 U685
*1059 U686
*1060 U687
*1061 U688
*1062 U689
*1063 U690
*1064 U691
*1065 U692
*1066 U693
*1067 U694
*1068 U695
*1069 U696
*1070 U697
*1071 U698
*1072 U699
*1073 U700
*1074 U701
*1075 U702
*1076 U703
*1077 U704
*1078 U705
*1079 U706
*1080 U707
*1081 U708
*1082 U709
*1083 U710
*1084 U711
*1085 U712
*1086 U713
*1087 U714
*1088 U715
*1089 U716
*1090 U717
*1091 U718


*PORTS

*25 I *C 35.9 0
*576 I *C 0 35.6
*575 I *C 70.84 49.6
*588 O *C 31.7 70.4
*586 O *C 48.3 70.4
*585 O *C 70.84 43
*587 O *C 0.26 23.55
*582 I *C 0 30.6
*584 I *C 31.9 70.4
*583 I *C 35.1 70.4
*16 I *C 70.84 23.4
*15 I *C 53.5 0
*14 I *C 70.84 34.2
*13 I *C 70.84 16.2
*12 I *C 70.84 16.2
*11 I *C 70.58 10.95
*10 I *C 70.84 18.2
*9 I *C 70.84 21.8
*24 I *C 70.84 42.4
*23 O *C 70.84 38.2
*22 O *C 34.3 0
*20 O *C 0 39.4
*21 O *C 29.5 0
*8 O *C 40.7 70.4
*7 O *C 41.7 70.4
*6 O *C 37.3 70.4
*5 O *C 37.5 70.4
*4 O *C 44.9 70.4
*3 O *C 44.5 70.4
*2 O *C 37.5 70.4
*1 O *C 44.3 70.4
*18 O *C 31.1 70.4
*17 O *C 30.5 70.4


*D_NET *205 1.34e-06

*CONN
*I *951:B I *C 39 27 *L 0.0021 *D ao21s03
*I *894:ZN O *C 43 27 *L 0 *D in01s01

*CAP
1 *205:3 6.7e-07
2 *205:2 6.7e-07

*RES
1 *205:3 *894:ZN 0.15
2 *205:2 *205:3 0.0743363
3 *951:B *205:2 0.15
*END

*D_NET *300 9e-07

*CONN
*I *996:ZN O *C 22 53 *L 0 *D in01f01
*I *740:A1 I *C 21 54 *L 0.0008 *D ao22f01

*CAP
1 *300:3 4.5e-07
2 *300:2 4.5e-07

*RES
1 *300:3 *996:ZN 0.15
2 *300:2 *300:3 0.0495575
3 *740:A1 *300:2 0.15
*END

*D_NET *394 1.4e-06

*CONN
*I *1081:Z O *C 11 11 *L 0 *D na02s01
*I *1028:A2 I *C 13 11 *L 0.0012 *D na02s03

*CAP
1 *1028:A2 7e-07
2 *1081:Z 7e-07

*RES
1 *1081:Z *1028:A2 0.0346213
*END

*D_NET *11 1.071e-05

*CONN
*P *11 I *C 70 10 *L 0
*I *900:I I *C 60 11 *L 0.0008 *D in01s01

*CAP
1 *11 5e-08
2 *11:2 1.5e-07
3 *11:3 5.27e-06
4 *900:I 5.24e-06

*RES
1 *900:I *11:3 0.257187
2 *11:2 *11:3 0.15
3 *11 *11:2 0.15
*END

*D_NET *397 1e-06

*CONN
*I *792:A1 I *C 11 14 *L 0.0025 *D oa21f03
*I *753:ZN O *C 10 14 *L 0 *D in01s01

*CAP
1 *792:A1 5e-07
2 *753:ZN 5e-07

*RES
1 *753:ZN *792:A1 0.0247295
*END

*D_NET *530 2e-07

*CONN
*I *1091:Z O *C 19 15 *L 0 *D or03s01
*I *710:I I *C 19 16 *L 0.0008 *D in01s01

*CAP
1 *710:I 1e-07
2 *1091:Z 1e-07

*RES
1 *1091:Z *710:I 0.0049459
*END

*D_NET *251 1.24e-06

*CONN
*I *998:Z O *C 19 18 *L 0 *D na02s02
*I *802:A2 I *C 20 18 *L 0.0007 *D oa21f01

*CAP
1 *802:A2 6.2e-07
2 *998:Z 6.2e-07

*RES
1 *998:Z *802:A2 0.0296754
*END

*D_NET *267 8e-07

*CONN
*I *1025:A3 I *C 32 18 *L 0.0012 *D na03s03
*I *693:ZN O *C 30 18 *L 0 *D in01s02

*CAP
1 *1025:A3 4e-07
2 *693:ZN 4e-07

*RES
1 *693:ZN *1025:A3 0.0197836
*END

*D_NET *427 8e-07

*CONN
*I *1074:B1 I *C 41 18 *L 0.0008 *D oa22s01
*I *1051:ZN O *C 40 17 *L 0 *D oa21s01

*CAP
1 *1074:B1 4e-07
2 *1051:ZN 4e-07

*RES
1 *1051:ZN *1074:B1 0.0197836
*END

*D_NET *411 8.4e-07

*CONN
*I *781:A1 I *C 12 26 *L 0.001 *D or02f02
*I *780:ZN O *C 10 27 *L 0 *D oa21f01

*CAP
1 *781:A1 4.2e-07
2 *780:ZN 4.2e-07

*RES
1 *780:ZN *781:A1 0.0197836
*END

*D_NET *175 6e-07

*CONN
*I *729:I I *C 55 32 *L 0.0008 *D in01s01
*I *628:QN O *C 54 32 *L 0 *D ff00m02

*CAP
1 *729:I 3e-07
2 *628:QN 3e-07

*RES
1 *628:QN *729:I 0.0148377
*END

*D_NET *538 1e-06

*CONN
*I *991:Z O *C 45 33 *L 0 *D na02s02
*I *858:A1 I *C 44 32 *L 0.0025 *D oa21f03

*CAP
1 *991:Z 5e-07
2 *858:A1 5e-07

*RES
1 *858:A1 *991:Z 0.0247295
*END

*D_NET *381 6e-07

*CONN
*I *991:A1 I *C 46 32 *L 0.0007 *D na02s02
*I *712:ZN O *C 47 32 *L 0 *D in01s01

*CAP
1 *712:ZN 3e-07
2 *991:A1 3e-07

*RES
1 *991:A1 *712:ZN 0.0148377
*END

*D_NET *526 1.24e-06

*CONN
*I *999:Z O *C 26 33 *L 0 *D na02s02
*I *773:A1 I *C 25 34 *L 0.0008 *D na02f02

*CAP
1 *999:Z 6.2e-07
2 *773:A1 6.2e-07

*RES
1 *773:A1 *999:Z 0.0296754
*END

*D_NET *489 1.24e-06

*CONN
*I *1006:Z O *C 14 41 *L 0 *D na03s01
*I *726:I I *C 12 41 *L 0.0008 *D in01s01

*CAP
1 *1006:Z 6.2e-07
2 *726:I 6.2e-07

*RES
1 *726:I *1006:Z 0.0296754
*END

*D_NET *486 4.4e-07

*CONN
*I *1075:ZN O *C 16 41 *L 0 *D ao21s01
*I *724:I I *C 17 41 *L 0.0008 *D in01s01

*CAP
1 *724:I 2.2e-07
2 *1075:ZN 2.2e-07

*RES
1 *1075:ZN *724:I 0.00989181
*END

*D_NET *487 1.04e-06

*CONN
*I *1071:Z O *C 14 43 *L 0 *D na02s01
*I *754:I I *C 13 43 *L 0.0008 *D in01s01

*CAP
1 *1071:Z 5.2e-07
2 *754:I 5.2e-07

*RES
1 *754:I *1071:Z 0.0247295
*END

*D_NET *323 4e-07

*CONN
*I *928:A2 I *C 21 45 *L 0.0007 *D oa21s01
*I *612:QN O *C 20 45 *L 0 *D ff00s02

*CAP
1 *928:A2 2e-07
2 *612:QN 2e-07

*RES
1 *612:QN *928:A2 0.00989181
*END

*D_NET *488 1.04e-06

*CONN
*I *982:I I *C 13 47 *L 0.0008 *D in01s01
*I *820:Z O *C 14 47 *L 0 *D na02f02

*CAP
1 *820:Z 5.2e-07
2 *982:I 5.2e-07

*RES
1 *982:I *820:Z 0.0247295
*END

*D_NET *551 1.64e-06

*CONN
*I *885:Z O *C 30 47 *L 0 *D na02s01
*I *761:B2 I *C 32 47 *L 0.0012 *D ao22f02

*CAP
1 *761:B2 8.2e-07
2 *885:Z 8.2e-07

*RES
1 *885:Z *761:B2 0.0395672
*END

*D_NET *284 1.44e-06

*CONN
*I *904:Z O *C 11 51 *L 0 *D na02s01
*I *825:B2 I *C 13 52 *L 0.0012 *D ao22f02

*CAP
1 *825:B2 7.2e-07
2 *904:Z 7.2e-07

*RES
1 *904:Z *825:B2 0.0346213
*END

*D_NET *242 1.52e-06

*CONN
*I *809:B I *C 16 52 *L 0.0022 *D oa21f03
*I *770:ZN O *C 20 52 *L 0 *D ao21f02

*CAP
1 *809:B 6e-07
2 *242:2 7.6e-07
3 *770:ZN 1.6e-07

*RES
1 *770:ZN *242:2 0.0373832
2 *809:B *242:2 0.0296754
*END

*D_NET *462 1e-06

*CONN
*I *905:B I *C 52 54 *L 0.0012 *D ao21s02
*I *782:ZN O *C 50 54 *L 0 *D ao21f01

*CAP
1 *905:B 5e-07
2 *782:ZN 5e-07

*RES
1 *782:ZN *905:B 0.0247295
*END

*D_NET *215 1.28e-06

*CONN
*I *882:A1 I *C 48 54 *L 0.0007 *D or02s01
*I *715:ZN O *C 47 54 *L 0 *D in01s02

*CAP
1 *882:A1 6.4e-07
2 *715:ZN 6.4e-07

*RES
1 *715:ZN *882:A1 0.0296754
*END

*D_NET *416 1.64e-06

*CONN
*I *722:Z O *C 56 55 *L 0 *D na04m01
*I *721:I I *C 58 55 *L 0.0008 *D in01s01

*CAP
1 *721:I 8.2e-07
2 *722:Z 8.2e-07

*RES
1 *722:Z *721:I 0.0395672
*END

*D_NET *229 1.4e-06

*CONN
*I *720:Z O *C 58 59 *L 0 *D na02f01
*I *719:I I *C 59 59 *L 0.0008 *D in01s01

*CAP
1 *719:I 7e-07
2 *720:Z 7e-07

*RES
1 *720:Z *719:I 0.0346213
*END

*D_NET *371 1.83e-06

*CONN
*I *749:A1 I *C 10 25 *L 0.0022 *D na02s06
*I *747:ZN O *C 11 23 *L 0 *D in01s01

*CAP
1 *749:A1 6e-08
2 *371:2 5.7e-07
3 *371:3 5.7e-07
4 *747:ZN 3e-07
5 *371:4 3.3e-07

*RES
1 *371:4 *747:ZN 0.0148377
2 *371:3 *371:4 0.15
3 *371:3 *371:2 0.0274062
4 *749:A1 *371:2 0.15
*END

*D_NET *509 9.1e-06

*CONN
*I *1056:I I *C 10 16 *L 0.0008 *D in01s01
*I *794:Z O *C 10 12 *L 0 *D or02f01

*CAP
1 *794:Z 6e-08
2 *1056:I 6e-08
3 *509:5 2.88e-06
4 *509:4 2.97e-06
5 *509:3 1.61e-06
6 *509:2 1.52e-06

*RES
1 *509:5 *1056:I 0.15
2 *509:4 *509:5 0.039266
3 *509:3 *509:4 0.0247788
4 *509:2 *509:3 0.0778695
5 *794:Z *509:2 0.15
*END

*D_NET *490 9.56e-06

*CONN
*I *1068:Z O *C 10 41 *L 0 *D na02s01
*I *752:I I *C 10 39 *L 0.0008 *D in01s01

*CAP
1 *752:I 6e-08
2 *1068:Z 6e-08
3 *490:3 4.72e-06
4 *490:2 4.72e-06

*RES
1 *490:3 *1068:Z 0.15
2 *490:2 *490:3 0.0551372
3 *752:I *490:2 0.15
*END

*D_NET *494 1.706e-05

*CONN
*I *835:B2 I *C 10 43 *L 0.0012 *D oa22f02
*I *752:ZN O *C 10 39 *L 0 *D in01s01

*CAP
1 *752:ZN 6e-08
2 *835:B2 6e-08
3 *494:5 1.36e-06
4 *494:4 1.55e-06
5 *494:3 7.11e-06
6 *494:2 6.92e-06

*RES
1 *494:5 *835:B2 0.15
2 *494:4 *494:5 0.0703771
3 *494:4 *494:3 0.0247788
4 *494:2 *494:3 0.181691
5 *752:ZN *494:2 0.15
*END

*D_NET *355 1.1e-05

*CONN
*I *1081:A2 I *C 11 11 *L 0.0008 *D na02s01
*I *794:A1 I *C 11 12 *L 0.0008 *D or02f01
*I *662:QN O *C 12 13 *L 0 *D ff00f02

*CAP
1 *1081:A2 6e-08
2 *355:2 4.65e-06
3 *355:3 4.74e-06
4 *355:5 2.1e-07
5 *355:4 3e-07
6 *662:QN 5e-07
7 *794:A1 5.4e-07

*RES
1 *794:A1 *662:QN 0.0247295
2 *355:5 *794:A1 0.15
3 *355:4 *355:5 0.0091354
4 *355:3 *355:4 0.0247788
5 *355:2 *355:3 0.03966
6 *1081:A2 *355:2 0.15
*END

*D_NET *259 7.97e-06

*CONN
*I *917:ZN O *C 10 49 *L 0 *D in01s01
*I *819:A2 I *C 10 47 *L 0.0012 *D oa22f02

*CAP
1 *819:A2 6e-08
2 *259:2 3.74e-06
3 *259:3 3.74e-06
4 *259:4 2.3e-07
5 *917:ZN 2e-07

*RES
1 *917:ZN *259:4 0.00989181
2 *259:3 *259:4 0.15
3 *259:2 *259:3 0.197159
4 *819:A2 *259:2 0.15
*END

*D_NET *496 2.214e-05

*CONN
*I *835:A1 I *C 11 43 *L 0.0012 *D oa22f02
*I *725:ZN O *C 10 50 *L 0 *D in01s01

*CAP
1 *835:A1 6e-08
2 *496:2 5.47e-06
3 *496:3 5.66e-06
4 *496:4 4.35e-06
5 *496:5 4.16e-06
6 *496:6 1.24e-06
7 *725:ZN 1.2e-06

*RES
1 *725:ZN *496:6 0.0404424
2 *496:5 *496:6 0.15
3 *496:4 *496:5 0.327537
4 *496:4 *496:3 0.0247788
5 *496:2 *496:3 0.322899
6 *835:A1 *496:2 0.15
*END

*D_NET *495 8.16e-06

*CONN
*I *835:A2 I *C 11 43 *L 0.0012 *D oa22f02
*I *726:ZN O *C 12 41 *L 0 *D in01s01

*CAP
1 *726:ZN 6e-08
2 *835:A2 6e-08
3 *495:5 2.88e-06
4 *495:4 3.07e-06
5 *495:3 1.14e-06
6 *495:2 9.5e-07

*RES
1 *495:5 *835:A2 0.15
2 *495:4 *495:5 0.039266
3 *495:4 *495:3 0.0247788
4 *495:2 *495:3 0.00793201
5 *726:ZN *495:2 0.15
*END

*D_NET *118 1.494e-05

*CONN
*I *835:ZN O *C 11 43 *L 0 *D oa22f02
*I *680:D I *C 12 39 *L 0.0011 *D ff00m03

*CAP
1 *680:D 6e-08
2 *118:2 4.42e-06
3 *118:3 4.61e-06
4 *835:ZN 6e-08
5 *118:5 2.8e-06
6 *118:4 2.99e-06

*RES
1 *118:5 *835:ZN 0.15
2 *118:4 *118:5 0.023796
3 *118:4 *118:3 0.0247788
4 *118:2 *118:3 0.136678
5 *680:D *118:2 0.15
*END

*D_NET *238 1.82e-06

*CONN
*I *1017:ZN O *C 11 56 *L 0 *D oa21s03
*I *1016:B I *C 13 57 *L 0.004 *D oa21s06

*CAP
1 *1017:ZN 6e-08
2 *1016:B 6e-08
3 *238:3 8.5e-07
4 *238:2 8.5e-07

*RES
1 *238:3 *1016:B 0.15
2 *238:2 *238:3 0.0622019
3 *1017:ZN *238:2 0.15
*END

*D_NET *261 4.52e-06

*CONN
*I *1024:A1 I *C 13 48 *L 0.0007 *D or02s01
*I *982:ZN O *C 13 46 *L 0 *D in01s01

*CAP
1 *982:ZN 6e-08
2 *1024:A1 6e-08
3 *261:5 1.43e-06
4 *261:4 1.62e-06
5 *261:3 7.7e-07
6 *261:2 5.8e-07

*RES
1 *261:5 *1024:A1 0.15
2 *261:4 *261:5 0.07545
3 *261:4 *261:3 0.0247788
4 *261:2 *261:3 0.015864
5 *982:ZN *261:2 0.15
*END

*D_NET *317 4.62e-06

*CONN
*I *980:A2 I *C 13 29 *L 0.0008 *D ao21s01
*I *656:QN O *C 13 31 *L 0 *D ff00m02

*CAP
1 *980:A2 6e-08
2 *656:QN 6e-08
3 *317:3 2.25e-06
4 *317:2 2.25e-06

*RES
1 *317:3 *656:QN 0.15
2 *317:2 *317:3 0.147049
3 *980:A2 *317:2 0.15
*END

*D_NET *327 3.33e-06

*CONN
*I *1015:A2 I *C 12 18 *L 0.0012 *D na02s03
*I *635:QN O *C 14 21 *L 0 *D ff00m02

*CAP
1 *327:1 2.3e-07
2 *1015:A2 2e-07
3 *635:QN 6e-08
4 *327:4 1.42e-06
5 *327:2 1.42e-06

*RES
1 *327:4 *635:QN 0.15
2 *327:2 *327:4 0.116207
3 *1015:A2 *327:1 0.00989181
4 *327:1 *327:2 0.15
*END

*D_NET *506 6.06e-06

*CONN
*I *978:Z O *C 14 18 *L 0 *D na02s01
*I *903:I I *C 14 19 *L 0.0008 *D in01s01

*CAP
1 *978:Z 6e-08
2 *903:I 6e-08
3 *506:5 1.59e-06
4 *506:4 1.78e-06
5 *506:3 1.38e-06
6 *506:2 1.19e-06

*RES
1 *506:5 *903:I 0.15
2 *506:4 *506:5 0.031728
3 *506:3 *506:4 0.0247788
4 *506:2 *506:3 0.0602151
5 *978:Z *506:2 0.15
*END

*D_NET *369 8.86e-06

*CONN
*I *989:B I *C 14 30 *L 0.0012 *D oa21s02
*I *980:ZN O *C 14 29 *L 0 *D ao21s01

*CAP
1 *980:ZN 6e-08
2 *989:B 6e-08
3 *369:5 3.64e-06
4 *369:4 4.06e-06
5 *369:3 7.3e-07
6 *369:2 3.1e-07

*RES
1 *369:5 *989:B 0.15
2 *369:4 *369:5 0.145019
3 *369:4 *369:3 0.0495575
4 *369:2 *369:3 0.00793201
5 *980:ZN *369:2 0.15
*END

*D_NET *277 4.12e-06

*CONN
*I *1028:Z O *C 14 11 *L 0 *D na02s03
*I *791:A2 I *C 14 14 *L 0.0011 *D ao21f02

*CAP
1 *1028:Z 6e-08
2 *791:A2 6e-08
3 *277:5 9.4e-07
4 *277:4 1.15e-06
5 *277:3 1.06e-06
6 *277:2 8.5e-07

*RES
1 *277:5 *791:A2 0.15
2 *277:4 *277:5 0.0460046
3 *277:3 *277:4 0.0495575
4 *277:2 *277:3 0.0411093
5 *1028:Z *277:2 0.15
*END

*D_NET *356 5.98e-06

*CONN
*I *1006:A1 I *C 15 41 *L 0.0007 *D na03s01
*I *864:A1 I *C 17 40 *L 0.0007 *D or02s01
*I *680:QN O *C 16 40 *L 0 *D ff00m03

*CAP
1 *680:QN 5.6e-07
2 *1006:A1 4e-07
3 *356:5 4.4e-07
4 *356:3 2.04e-06
5 *356:2 2.04e-06
6 *864:A1 5e-07

*RES
1 *1006:A1 *356:5 0.0197836
2 *356:3 *356:5 0.15
3 *680:QN *864:A1 0.0247295
4 *356:2 *356:3 0.103082
5 *680:QN *356:2 0.15
*END

*D_NET *55 2.72e-06

*CONN
*I *838:A2 I *C 13 23 *L 0.0013 *D na02f03
*I *671:Q O *C 16 25 *L 0 *D ff00f02

*CAP
1 *55:1 7.6e-07
2 *838:A2 7.2e-07
3 *671:Q 6e-08
4 *55:4 5.9e-07
5 *55:2 5.9e-07

*RES
1 *55:4 *671:Q 0.15
2 *55:2 *55:4 0.0274062
3 *838:A2 *55:1 0.0346213
4 *55:1 *55:2 0.15
*END

*D_NET *484 7.06e-06

*CONN
*I *1075:A2 I *C 16 41 *L 0.0008 *D ao21s01
*I *909:Z O *C 16 43 *L 0 *D or02s01

*CAP
1 *1075:A2 6e-08
2 *484:2 2.33e-06
3 *484:3 2.52e-06
4 *909:Z 6e-08
5 *484:5 9.5e-07
6 *484:4 1.14e-06

*RES
1 *484:5 *909:Z 0.15
2 *484:4 *484:5 0.00793201
3 *484:3 *484:4 0.0247788
4 *484:2 *484:3 0.119779
5 *1075:A2 *484:2 0.15
*END

*D_NET *529 2.2e-06

*CONN
*I *1080:ZN O *C 17 22 *L 0 *D oa22s01
*I *1001:I I *C 16 19 *L 0.0008 *D in01f01

*CAP
1 *1001:I 6e-08
2 *529:2 4.9e-07
3 *529:3 6.8e-07
4 *1080:ZN 6e-08
5 *529:5 3.6e-07
6 *529:4 5.5e-07

*RES
1 *529:5 *1080:ZN 0.15
2 *529:4 *529:5 0.0156637
3 *529:3 *529:4 0.0247788
4 *529:2 *529:3 0.0228385
5 *1001:I *529:2 0.15
*END

*D_NET *166 6.16e-06

*CONN
*I *888:ZN O *C 17 28 *L 0 *D oa21s01
*I *668:D I *C 17 27 *L 0.0011 *D ff00f02

*CAP
1 *668:D 6e-08
2 *166:2 7.2e-07
3 *166:3 1.14e-06
4 *888:ZN 6e-08
5 *166:5 1.88e-06
6 *166:4 2.3e-06

*RES
1 *166:5 *888:ZN 0.15
2 *166:4 *166:5 0.015864
3 *166:4 *166:3 0.0495575
4 *166:2 *166:3 0.0387694
5 *668:D *166:2 0.15
*END

*D_NET *339 6.97e-06

*CONN
*I *973:B1 I *C 16 37 *L 0.0011 *D oa22s02
*I *666:QN O *C 18 35 *L 0 *D ff00f02

*CAP
1 *973:B1 6e-08
2 *339:2 3.12e-06
3 *339:3 3.12e-06
4 *666:QN 3.2e-07
5 *339:4 3.5e-07

*RES
1 *339:4 *666:QN 0.0148377
2 *339:3 *339:4 0.15
3 *339:3 *339:2 0.1509
4 *973:B1 *339:2 0.15
*END

*D_NET *298 8.76e-06

*CONN
*I *737:A1 I *C 18 55 *L 0.0008 *D na02m01
*I *706:Z O *C 18 59 *L 0 *D na02f02

*CAP
1 *737:A1 6e-08
2 *298:2 1.45e-06
3 *298:3 1.64e-06
4 *706:Z 6e-08
5 *298:5 2.68e-06
6 *298:4 2.87e-06

*RES
1 *298:5 *706:Z 0.15
2 *298:4 *298:5 0.180645
3 *298:4 *298:3 0.0247788
4 *298:2 *298:3 0.0928163
5 *737:A1 *298:2 0.15
*END

*D_NET *172 5.75e-06

*CONN
*I *973:A1 I *C 17 37 *L 0.0011 *D oa22s02
*I *864:Z O *C 18 40 *L 0 *D or02s01

*CAP
1 *973:A1 6e-08
2 *172:2 2.63e-06
3 *172:3 2.63e-06
4 *172:4 2.3e-07
5 *864:Z 2e-07

*RES
1 *864:Z *172:4 0.00989181
2 *172:3 *172:4 0.15
3 *172:2 *172:3 0.0555241
4 *973:A1 *172:2 0.15
*END

*D_NET *308 4.41e-06

*CONN
*I *888:A2 I *C 18 29 *L 0.0007 *D oa21s01
*I *599:QN O *C 19 31 *L 0 *D ff00s02

*CAP
1 *308:1 5.3e-07
2 *888:A2 5e-07
3 *599:QN 6e-08
4 *308:4 1.66e-06
5 *308:2 1.66e-06

*RES
1 *308:4 *599:QN 0.15
2 *308:2 *308:4 0.0475921
3 *888:A2 *308:1 0.0247295
4 *308:1 *308:2 0.15
*END

*D_NET *121 2.3e-06

*CONN
*I *787:Z O *C 19 14 *L 0 *D na03f03
*I *661:D I *C 19 12 *L 0.0011 *D ff00f02

*CAP
1 *661:D 6e-08
2 *121:2 4.9e-07
3 *121:3 9.1e-07
4 *787:Z 1.1e-07
5 *121:5 1.8e-07
6 *121:4 5.5e-07

*RES
1 *121:5 *787:Z 0.075
2 *121:4 *121:5 0.0045677
3 *121:4 *121:3 0.0495575
4 *121:2 *121:3 0.0228385
5 *661:D *121:2 0.15
*END

*D_NET *58 3.69e-06

*CONN
*I *889:A2 I *C 20 29 *L 0.0007 *D oa21s01
*I *600:Q O *C 19 31 *L 0 *D ff00s02

*CAP
1 *889:A2 3e-07
2 *58:2 3.3e-07
3 *600:Q 6e-08
4 *58:4 1.5e-06
5 *58:3 1.5e-06

*RES
1 *58:4 *600:Q 0.15
2 *58:3 *58:4 0.179425
3 *58:2 *58:3 0.15
4 *58:2 *889:A2 0.0148377
*END

*D_NET *297 4.2e-06

*CONN
*I *740:B1 I *C 20 54 *L 0.0008 *D ao22f01
*I *737:Z O *C 19 55 *L 0 *D na02m01

*CAP
1 *740:B1 6e-08
2 *297:2 1.35e-06
3 *297:3 1.35e-06
4 *297:4 7.4e-07
5 *737:Z 7e-07

*RES
1 *737:Z *297:4 0.0346213
2 *297:3 *297:4 0.15
3 *297:2 *297:3 0.0547131
4 *740:B1 *297:2 0.15
*END

*D_NET *117 2.5e-06

*CONN
*I *772:Z O *C 20 37 *L 0 *D na03f01
*I *666:D I *C 20 36 *L 0.0011 *D ff00f02

*CAP
1 *666:D 6e-08
2 *117:2 4.1e-07
3 *117:3 9.6e-07
4 *772:Z 6e-08
5 *117:5 2.3e-07
6 *117:4 7.8e-07

*RES
1 *117:5 *772:Z 0.15
2 *117:4 *117:5 0.0091354
3 *117:4 *117:3 0.0495575
4 *117:2 *117:3 0.0182708
5 *666:D *117:2 0.15
*END

*D_NET *477 2.24e-06

*CONN
*I *1083:Z O *C 20 51 *L 0 *D na02s01
*I *770:A1 I *C 21 52 *L 0.0012 *D ao21f02

*CAP
1 *1083:Z 6e-08
2 *770:A1 6e-08
3 *477:5 4.9e-07
4 *477:4 7.5e-07
5 *477:3 5.7e-07
6 *477:2 3.1e-07

*RES
1 *477:5 *770:A1 0.15
2 *477:4 *477:5 0.0228385
3 *477:4 *477:3 0.0247788
4 *477:2 *477:3 0.00781032
5 *1083:Z *477:2 0.15
*END

*D_NET *481 7.44e-06

*CONN
*I *878:ZN O *C 22 58 *L 0 *D oa21s02
*I *769:I I *C 21 59 *L 0.0012 *D in01f02

*CAP
1 *878:ZN 6e-08
2 *769:I 6e-08